[Format]      =  4.0
[Frequency]   =  0
[Precision]   =  1e-008
[MinAngle]    =  30
[DoSmartMesh] =  1
[Depth]       =  0.10000000000000001
[LengthUnits] =  meters
[ProblemType] =  planar
[Coordinates] =  cartesian
[ACSolver]    =  0
[PrevType]    =  0
[PrevSoln]    =  ""
[Comment]     =  "Add comments here."
[PointProps]   = 0
[BdryProps]   = 0
[BlockProps]  = 4
  <BeginBlock>
    <BlockName> = "Air"
    <Mu_x> = 1
    <Mu_y> = 1
    <H_c> = 0
    <H_cAngle> = 0
    <J_re> = 0
    <J_im> = 0
    <Sigma> = 0
    <d_lam> = 0
    <Phi_h> = 0
    <Phi_hx> = 0
    <Phi_hy> = 0
    <LamType> = 0
    <LamFill> = 1
    <NStrands> = 0
    <WireD> = 0
    <BHPoints> = 0
  <EndBlock>
  <BeginBlock>
    <BlockName> = "Hiperco-50"
    <Mu_x> = 3520
    <Mu_y> = 3520
    <H_c> = 0
    <H_cAngle> = 0
    <J_re> = 0
    <J_im> = 0
    <Sigma> = 2.5
    <d_lam> = 0
    <Phi_h> = 20
    <Phi_hx> = 0
    <Phi_hy> = 0
    <LamType> = 0
    <LamFill> = 1
    <NStrands> = 0
    <WireD> = 0
    <BHPoints> = 22
      0	0
      0.29072999999999999	81.170000000000002
      0.42870999999999998	106.8
      0.58955999999999997	136.84
      0.79627000000000003	179.91
      1.0201	233.41
      1.1980999999999999	283.70999999999998
      1.3989	344.75
      1.5596000000000001	402.92000000000002
      1.7835000000000001	536.63999999999999
      1.8985000000000001	670.10000000000002
      1.9906999999999999	893.79999999999995
      2.0543999999999998	1290.4000000000001
      2.1183999999999998	2209.8000000000002
      2.1476999999999999	3233.6999999999998
      2.177	4549
      2.2065000000000001	7297.8000000000002
      2.2416999999999998	11554
      2.2711999999999999	18294
      2.2890000000000001	25071
      2.3126000000000002	36690
      2.3410000000000002	62037
  <EndBlock>
  <BeginBlock>
    <BlockName> = "N42"
    <Mu_x> = 1.05
    <Mu_y> = 1.05
    <H_c> = 994529
    <H_cAngle> = 0
    <J_re> = 0
    <J_im> = 0
    <Sigma> = 0.66700000000000004
    <d_lam> = 0
    <Phi_h> = 0
    <Phi_hx> = 0
    <Phi_hy> = 0
    <LamType> = 0
    <LamFill> = 1
    <NStrands> = 0
    <WireD> = 0
    <BHPoints> = 0
  <EndBlock>
  <BeginBlock>
    <BlockName> = "M-15 Steel"
    <Mu_x> = 1
    <Mu_y> = 1
    <H_c> = 0
    <H_cAngle> = 0
    <J_re> = 0
    <J_im> = 0
    <Sigma> = 1.8999999999999999
    <d_lam> = 0.63500000000000001
    <Phi_h> = 0
    <Phi_hx> = 0
    <Phi_hy> = 0
    <LamType> = 0
    <LamFill> = 0.97999999999999998
    <NStrands> = 0
    <WireD> = 0
    <BHPoints> = 47
      0	0
      0.050000000000000003	15.120714
      0.10000000000000001	22.718292000000002
      0.14999999999999999	27.842732999999999
      0.20000000000000001	31.871434000000001
      0.25	35.365043999999997
      0.29999999999999999	38.600588000000002
      0.34999999999999998	41.736201999999999
      0.40000000000000002	44.873978999999999
      0.45000000000000001	48.087806999999998
      0.5	51.437235999999999
      0.55000000000000004	54.975220999999998
      0.59999999999999998	58.752992999999996
      0.65000000000000002	62.823644000000002
      0.69999999999999996	67.245284999999996
      0.75	72.084406000000001
      0.80000000000000004	77.420100000000005
      0.84999999999999998	83.350020999999998
      0.90000000000000002	89.999611999999999
      0.94999999999999996	97.537352999999996
      1	106.20140600000001
      1.05	116.34846400000001
      1.1000000000000001	128.54732899999999
      1.1499999999999999	143.76543100000001
      1.2	163.75416899999999
      1.25	191.86815799999999
      1.3	234.833507
      1.3500000000000001	306.50976900000001
      1.3999999999999999	435.255202
      1.45	674.911968
      1.5	1108.3255690000001
      1.55	1813.085468
      1.6000000000000001	2801.2174209999998
      1.6499999999999999	4053.6531169999998
      1.7	5591.10689
      1.75	7448.318413
      1.8	9708.81567
      1.8500000000000001	12486.931615
      1.8999999999999999	16041.483644
      1.95	21249.420623999998
      2	31313.495878000002
      2.0499999999999998	53589.446877000002
      2.1000000000000001	88477.484601000004
      2.1499999999999999	124329.41054
      2.2000000000000002	159968.5693
      2.25	197751.604272
      2.2999999999999998	234024.75134700001
  <EndBlock>
[CircuitProps]  = 0
[NumPoints] = 24
0.10000000000000001	0	0	0
-0.10000000000000001	0	0	0
0.077703537555513236	0	0	0
-0.077703537555513236	0	0	0
0.051000000000000004	0	0	0
-0.051000000000000004	0	0	0
0.050500000000000003	0	0	0
-0.050500000000000003	0	0	0
0.049384417029756891	0.0078217232520115428	0	0
0.049384417029756891	-0.0078217232520115428	0	0
0.045433663667376334	0.0071959853918506182	0	0
0.045433663667376334	-0.0071959853918506182	0	0
-0.007821723252011541	0.049384417029756891	0	0
0.0078217232520115462	0.049384417029756891	0	0
-0.0071959853918506173	0.045433663667376334	0	0
0.0071959853918506225	0.045433663667376334	0	0
-0.049384417029756891	-0.0078217232520115375	0	0
-0.049384417029756884	0.0078217232520115497	0	0
-0.045433663667376334	-0.0071959853918506138	0	0
-0.045433663667376334	0.0071959853918506251	0	0
0.0078217232520115341	-0.049384417029756891	0	0
-0.0078217232520115514	-0.049384417029756884	0	0
0.0071959853918506112	-0.045433663667376334	0	0
-0.0071959853918506277	-0.045433663667376334	0	0
[NumSegments] = 8
8	10	-1	0	0	0
9	11	-1	0	0	0
12	14	-1	0	0	0
13	15	-1	0	0	0
16	18	-1	0	0	0
17	19	-1	0	0	0
20	22	-1	0	0	0
21	23	-1	0	0	0
[NumArcSegments] = 20
0	1	180	1	0	0	0	1
1	0	180	1	0	0	0	1
2	3	180	1	0	0	0	1
3	2	180	1	0	0	0	1
4	5	180	1	0	0	0	1
5	4	180	1	0	0	0	1
6	7	180	1	0	0	0	1
7	6	180	1	0	0	0	1
10	15	72	1	0	0	0	1
11	10	17.999999999999996	1	0	0	0	1
8	13	72	1	0	0	0	1
14	19	72	1	0	0	0	1
15	14	17.999999999999996	1	0	0	0	1
12	17	72	1	0	0	0	1
18	23	72	1	0	0	0	1
19	18	17.999999999999996	1	0	0	0	1
16	21	72	1	0	0	0	1
22	11	72	1	0	0	0	1
23	22	17.999999999999996	1	0	0	0	1
20	9	72	1	0	0	0	1
[NumHoles] = 0
[NumBlockLabels] = 9
0	0.099000000000000005	1	-1	0	0	0	1	0
0	0.076703537555513235	2	-1	0	0	0	1	0
0	0.050750000000000003	1	-1	0	0	0	1	0
0	0.050000000000000003	1	-1	0	0	0	1	0
0	0.044999999999999998	4	-1	0	0	0	1	0
0.033941125496954286	0.033941125496954279	3	-1	0	1125	0	1	0
-0.033941125496954279	0.033941125496954286	3	-1	0	1395	0	1	0
-0.033941125496954293	-0.033941125496954279	3	-1	0	585	0	1	0
0.033941125496954272	-0.033941125496954293	3	-1	0	855	0	1	0
