[Format]      =  4.0
[Frequency]   =  0
[Precision]   =  1e-008
[MinAngle]    =  30
[DoSmartMesh] =  1
[Depth]       =  1
[LengthUnits] =  millimeters
[ProblemType] =  planar
[Coordinates] =  cartesian
[ACSolver]    =  0
[PrevType]    =  0
[PrevSoln]    =  ""
[Comment]     =  "Add comments here."
[PointProps]   = 0
[BdryProps]   = 0
[BlockProps]  = 5
  <BeginBlock>
    <BlockName> = "Air"
    <Mu_x> = 1
    <Mu_y> = 1
    <H_c> = 0
    <H_cAngle> = 0
    <J_re> = 0
    <J_im> = 0
    <Sigma> = 0
    <d_lam> = 0
    <Phi_h> = 0
    <Phi_hx> = 0
    <Phi_hy> = 0
    <LamType> = 0
    <LamFill> = 1
    <NStrands> = 0
    <WireD> = 0
    <BHPoints> = 0
  <EndBlock>
  <BeginBlock>
    <BlockName> = "24 AWG"
    <Mu_x> = 1
    <Mu_y> = 1
    <H_c> = 0
    <H_cAngle> = 0
    <J_re> = 0
    <J_im> = 0
    <Sigma> = 58
    <d_lam> = 0
    <Phi_h> = 0
    <Phi_hx> = 0
    <Phi_hy> = 0
    <LamType> = 3
    <LamFill> = 1
    <NStrands> = 1
    <WireD> = 0.510714027632857
    <BHPoints> = 0
  <EndBlock>
  <BeginBlock>
    <BlockName> = "N45"
    <Mu_x> = 1.05
    <Mu_y> = 1.05
    <H_c> = 1030272
    <H_cAngle> = 0
    <J_re> = 0
    <J_im> = 0
    <Sigma> = 0.66700000000000004
    <d_lam> = 0
    <Phi_h> = 0
    <Phi_hx> = 0
    <Phi_hy> = 0
    <LamType> = 0
    <LamFill> = 1
    <NStrands> = 0
    <WireD> = 0
    <BHPoints> = 0
  <EndBlock>
  <BeginBlock>
    <BlockName> = "M-15 Steel"
    <Mu_x> = 1
    <Mu_y> = 1
    <H_c> = 0
    <H_cAngle> = 0
    <J_re> = 0
    <J_im> = 0
    <Sigma> = 1.8999999999999999
    <d_lam> = 0.63500000000000001
    <Phi_h> = 0
    <Phi_hx> = 0
    <Phi_hy> = 0
    <LamType> = 0
    <LamFill> = 0.97999999999999998
    <NStrands> = 0
    <WireD> = 0
    <BHPoints> = 47
      0	0
      0.050000000000000003	15.120714
      0.10000000000000001	22.718292000000002
      0.14999999999999999	27.842732999999999
      0.20000000000000001	31.871434000000001
      0.25	35.365043999999997
      0.29999999999999999	38.600588000000002
      0.34999999999999998	41.736201999999999
      0.40000000000000002	44.873978999999999
      0.45000000000000001	48.087806999999998
      0.5	51.437235999999999
      0.55000000000000004	54.975220999999998
      0.59999999999999998	58.752992999999996
      0.65000000000000002	62.823644000000002
      0.69999999999999996	67.245284999999996
      0.75	72.084406000000001
      0.80000000000000004	77.420100000000005
      0.84999999999999998	83.350020999999998
      0.90000000000000002	89.999611999999999
      0.94999999999999996	97.537352999999996
      1	106.20140600000001
      1.05	116.34846400000001
      1.1000000000000001	128.54732899999999
      1.1499999999999999	143.76543100000001
      1.2	163.75416899999999
      1.25	191.86815799999999
      1.3	234.833507
      1.3500000000000001	306.50976900000001
      1.3999999999999999	435.255202
      1.45	674.911968
      1.5	1108.3255690000001
      1.55	1813.085468
      1.6000000000000001	2801.2174209999998
      1.6499999999999999	4053.6531169999998
      1.7	5591.10689
      1.75	7448.318413
      1.8	9708.81567
      1.8500000000000001	12486.931615
      1.8999999999999999	16041.483644
      1.95	21249.420623999998
      2	31313.495878000002
      2.0499999999999998	53589.446877000002
      2.1000000000000001	88477.484601000004
      2.1499999999999999	124329.41054
      2.2000000000000002	159968.5693
      2.25	197751.604272
      2.2999999999999998	234024.75134700001
  <EndBlock>
  <BeginBlock>
    <BlockName> = "Hiperco-50"
    <Mu_x> = 3520
    <Mu_y> = 3520
    <H_c> = 0
    <H_cAngle> = 0
    <J_re> = 0
    <J_im> = 0
    <Sigma> = 2.5
    <d_lam> = 0
    <Phi_h> = 20
    <Phi_hx> = 0
    <Phi_hy> = 0
    <LamType> = 0
    <LamFill> = 1
    <NStrands> = 0
    <WireD> = 0
    <BHPoints> = 22
      0	0
      0.29072999999999999	81.170000000000002
      0.42870999999999998	106.8
      0.58955999999999997	136.84
      0.79627000000000003	179.91
      1.0201	233.41
      1.1980999999999999	283.70999999999998
      1.3989	344.75
      1.5596000000000001	402.92000000000002
      1.7835000000000001	536.63999999999999
      1.8985000000000001	670.10000000000002
      1.9906999999999999	893.79999999999995
      2.0543999999999998	1290.4000000000001
      2.1183999999999998	2209.8000000000002
      2.1476999999999999	3233.6999999999998
      2.177	4549
      2.2065000000000001	7297.8000000000002
      2.2416999999999998	11554
      2.2711999999999999	18294
      2.2890000000000001	25071
      2.3126000000000002	36690
      2.3410000000000002	62037
  <EndBlock>
[CircuitProps]  = 3
  <BeginCircuit>
    <CircuitName> = "A"
    <TotalAmps_re> = 0
    <TotalAmps_im> = 1
    <CircuitType> = 1
  <EndCircuit>
  <BeginCircuit>
    <CircuitName> = "B"
    <TotalAmps_re> = 0
    <TotalAmps_im> = 1
    <CircuitType> = 1
  <EndCircuit>
  <BeginCircuit>
    <CircuitName> = "C"
    <TotalAmps_re> = 0
    <TotalAmps_im> = 1
    <CircuitType> = 1
  <EndCircuit>
[NumPoints] = 72
0.18080000000000002	0	0	0
-0.18080000000000002	0	0	0
0.1159	0	0	0
-0.1159	0	0	0
0.095079562205748411	0.012517461833902946	0	0
0.095079562205748411	-0.012517461833902946	0	0
0.050563687930064327	0.0066568358032226297	0	0
0.050563687930064327	-0.0066568358032226297	0	0
0.076082585333929462	0.058380221041936298	0	0
0.088600047167832402	0.036699341163812113	0	0
0.040461020354852995	0.031046832879444746	0	0
0.047117856158075622	0.019516855050619578	0	0
0.036699341163812113	0.088600047167832402	0	0
0.058380221041936312	0.076082585333929448	0	0
0.019516855050619581	0.047117856158075622	0	0
0.031046832879444753	0.040461020354852988	0	0
-0.012517461833902949	0.095079562205748411	0	0
0.012517461833902959	0.095079562205748411	0	0
-0.0066568358032226315	0.050563687930064327	0	0
0.0066568358032226367	0.050563687930064327	0	0
-0.058380221041936277	0.076082585333929476	0	0
-0.036699341163812085	0.088600047167832402	0	0
-0.031046832879444736	0.040461020354853001	0	0
-0.019516855050619564	0.047117856158075629	0	0
-0.088600047167832374	0.036699341163812155	0	0
-0.076082585333929448	0.058380221041936332	0	0
-0.047117856158075608	0.019516855050619602	0	0
-0.040461020354852988	0.031046832879444763	0	0
-0.095079562205748425	-0.012517461833902921	0	0
-0.095079562205748411	0.012517461833902946	0	0
-0.050563687930064334	-0.0066568358032226167	0	0
-0.050563687930064327	0.0066568358032226297	0	0
-0.076082585333929476	-0.058380221041936277	0	0
-0.088600047167832402	-0.036699341163812092	0	0
-0.040461020354853001	-0.031046832879444736	0	0
-0.047117856158075629	-0.019516855050619571	0	0
-0.036699341163812162	-0.088600047167832374	0	0
-0.058380221041936332	-0.076082585333929434	0	0
-0.019516855050619605	-0.047117856158075608	0	0
-0.031046832879444763	-0.040461020354852981	0	0
0.012517461833902916	-0.095079562205748425	0	0
-0.012517461833902951	-0.095079562205748411	0	0
0.0066568358032226141	-0.050563687930064334	0	0
-0.0066568358032226323	-0.050563687930064327	0	0
0.058380221041936235	-0.076082585333929503	0	0
0.036699341163812051	-0.088600047167832416	0	0
0.031046832879444711	-0.040461020354853022	0	0
0.019516855050619546	-0.047117856158075629	0	0
0.088600047167832346	-0.036699341163812245	0	0
0.076082585333929378	-0.058380221041936409	0	0
0.047117856158075594	-0.01951685505061965	0	0
0.040461020354852953	-0.031046832879444802	0	0
0.050500000000000003	0	0	1
-0.050500000000000003	0	0	1
0.049384417029756891	0.0078217232520115428	0	1
0.049384417029756891	-0.0078217232520115428	0	1
0.045433663667376334	0.0071959853918506182	0	1
0.045433663667376334	-0.0071959853918506182	0	1
-0.007821723252011541	0.049384417029756891	0	1
0.0078217232520115462	0.049384417029756891	0	1
-0.0071959853918506173	0.045433663667376334	0	1
0.0071959853918506225	0.045433663667376334	0	1
-0.049384417029756891	-0.0078217232520115375	0	1
-0.049384417029756884	0.0078217232520115497	0	1
-0.045433663667376334	-0.0071959853918506138	0	1
-0.045433663667376334	0.0071959853918506251	0	1
0.0078217232520115341	-0.049384417029756891	0	1
-0.0078217232520115514	-0.049384417029756884	0	1
0.0071959853918506112	-0.045433663667376334	0	1
-0.0071959853918506277	-0.045433663667376334	0	1
0.01	0	0	1
-0.01	0	0	1
[NumSegments] = 32
4	6	-1	0	0	0
5	7	-1	0	0	0
9	11	-1	0	0	0
8	10	-1	0	0	0
13	15	-1	0	0	0
12	14	-1	0	0	0
17	19	-1	0	0	0
16	18	-1	0	0	0
21	23	-1	0	0	0
20	22	-1	0	0	0
25	27	-1	0	0	0
24	26	-1	0	0	0
29	31	-1	0	0	0
28	30	-1	0	0	0
33	35	-1	0	0	0
32	34	-1	0	0	0
37	39	-1	0	0	0
36	38	-1	0	0	0
41	43	-1	0	0	0
40	42	-1	0	0	0
45	47	-1	0	0	0
44	46	-1	0	0	0
49	51	-1	0	0	0
48	50	-1	0	0	0
54	56	-1	0	0	1
55	57	-1	0	0	1
58	60	-1	0	0	1
59	61	-1	0	0	1
62	64	-1	0	0	1
63	65	-1	0	0	1
66	68	-1	0	0	1
67	69	-1	0	0	1
[NumArcSegments] = 56
0	1	180	1	0	0	0	1
1	0	180	1	0	0	0	1
2	3	180	1	0	0	0	1
3	2	180	1	0	0	0	1
4	9	15	1	0	0	0	1
7	6	15	1	0	0	0	1
6	11	15	1	0	0	0	1
8	13	15	1	0	0	0	1
11	10	15	1	0	0	0	1
10	15	15	1	0	0	0	1
12	17	15	1	0	0	0	1
15	14	15	1	0	0	0	1
14	19	15	1	0	0	0	1
16	21	15	1	0	0	0	1
19	18	15	1	0	0	0	1
18	23	15	1	0	0	0	1
20	25	15	1	0	0	0	1
23	22	15	1	0	0	0	1
22	27	15	1	0	0	0	1
24	29	15	1	0	0	0	1
27	26	15	1	0	0	0	1
26	31	15	1	0	0	0	1
28	33	15	1	0	0	0	1
31	30	15	1	0	0	0	1
30	35	15	1	0	0	0	1
32	37	15	1	0	0	0	1
35	34	15	1	0	0	0	1
34	39	15	1	0	0	0	1
36	41	15	1	0	0	0	1
39	38	15	1	0	0	0	1
38	43	15	1	0	0	0	1
40	45	15	1	0	0	0	1
43	42	15	1	0	0	0	1
42	47	15	1	0	0	0	1
44	49	15	1	0	0	0	1
47	46	15	1	0	0	0	1
46	51	15	1	0	0	0	1
48	5	15	1	0	0	0	1
51	50	15	1	0	0	0	1
50	7	15	1	0	0	0	1
52	53	180	1	0	0	1	1
53	52	180	1	0	0	1	1
56	61	72	1	0	0	1	1
61	60	17.999999999999996	1	0	0	1	1
54	59	72	1	0	0	1	1
60	65	72	1	0	0	1	1
65	64	17.999999999999996	1	0	0	1	1
58	63	72	1	0	0	1	1
64	69	72	1	0	0	1	1
69	68	17.999999999999996	1	0	0	1	1
62	67	72	1	0	0	1	1
68	57	72	1	0	0	1	1
57	56	17.999999999999996	1	0	0	1	1
66	55	72	1	0	0	1	1
70	71	180	1	0	0	1	1
71	70	180	1	0	0	1	1
[NumHoles] = 0
[NumBlockLabels] = 22
0	0.17980000000000002	1	-1	0	0	0	1	0
0	0.050899999999999994	1	-1	0	0	1	1	0
0	0.0504	1	-1	0	0	1	1	0
0	0.1149	5	-1	0	0	0	1	0
0.070947251940932071	0.019010258862780148	2	-1	0	0	0	1	0
0.051936993078151923	0.051936993078151909	2	-1	0	0	0	1	0
0.019010258862780165	0.070947251940932057	2	-1	0	0	0	1	0
-0.019010258862780141	0.070947251940932071	2	-1	0	0	0	1	0
-0.051936993078151909	0.051936993078151923	2	-1	0	0	0	1	0
-0.070947251940932057	0.019010258862780169	2	-1	0	0	0	1	0
-0.070947251940932071	-0.019010258862780152	2	-1	0	0	0	1	0
-0.05193699307815193	-0.051936993078151909	2	-1	0	0	0	1	0
-0.019010258862780207	-0.070947251940932057	2	-1	0	0	0	1	0
0.019010258862780117	-0.070947251940932071	2	-1	0	0	0	1	0
0.051936993078151861	-0.051936993078151979	2	-1	0	0	0	1	0
0.07094725194093203	-0.019010258862780269	2	-1	0	0	0	1	0
0	0.030000000000000002	4	-1	0	0	1	1	0
0	0.0090000000000000011	1	-1	0	0	1	1	0
0.033941125496954286	0.033941125496954279	3	-1	0	1125	1	1	0
-0.033941125496954279	0.033941125496954286	3	-1	0	1395	1	1	0
-0.033941125496954293	-0.033941125496954279	3	-1	0	585	1	1	0
0.033941125496954272	-0.033941125496954293	3	-1	0	855	1	1	0
