[Format]      =  4.0
[Frequency]   =  0
[Precision]   =  1e-008
[MinAngle]    =  30
[DoSmartMesh] =  1
[Depth]       =  0.10000000000000001
[LengthUnits] =  meters
[ProblemType] =  planar
[Coordinates] =  cartesian
[ACSolver]    =  0
[PrevType]    =  0
[PrevSoln]    =  ""
[Comment]     =  "Add comments here."
[PointProps]   = 0
[BdryProps]   = 0
[BlockProps]  = 5
  <BeginBlock>
    <BlockName> = "Air"
    <Mu_x> = 1
    <Mu_y> = 1
    <H_c> = 0
    <H_cAngle> = 0
    <J_re> = 0
    <J_im> = 0
    <Sigma> = 0
    <d_lam> = 0
    <Phi_h> = 0
    <Phi_hx> = 0
    <Phi_hy> = 0
    <LamType> = 0
    <LamFill> = 1
    <NStrands> = 0
    <WireD> = 0
    <BHPoints> = 0
  <EndBlock>
  <BeginBlock>
    <BlockName> = "24 AWG"
    <Mu_x> = 1
    <Mu_y> = 1
    <H_c> = 0
    <H_cAngle> = 0
    <J_re> = 0
    <J_im> = 0
    <Sigma> = 58
    <d_lam> = 0
    <Phi_h> = 0
    <Phi_hx> = 0
    <Phi_hy> = 0
    <LamType> = 3
    <LamFill> = 1
    <NStrands> = 1
    <WireD> = 0.510714027632857
    <BHPoints> = 0
  <EndBlock>
  <BeginBlock>
    <BlockName> = "N42"
    <Mu_x> = 1.05
    <Mu_y> = 1.05
    <H_c> = 994529
    <H_cAngle> = 0
    <J_re> = 0
    <J_im> = 0
    <Sigma> = 0.66700000000000004
    <d_lam> = 0
    <Phi_h> = 0
    <Phi_hx> = 0
    <Phi_hy> = 0
    <LamType> = 0
    <LamFill> = 1
    <NStrands> = 0
    <WireD> = 0
    <BHPoints> = 0
  <EndBlock>
  <BeginBlock>
    <BlockName> = "M-15 Steel"
    <Mu_x> = 1
    <Mu_y> = 1
    <H_c> = 0
    <H_cAngle> = 0
    <J_re> = 0
    <J_im> = 0
    <Sigma> = 1.8999999999999999
    <d_lam> = 0.63500000000000001
    <Phi_h> = 0
    <Phi_hx> = 0
    <Phi_hy> = 0
    <LamType> = 0
    <LamFill> = 0.97999999999999998
    <NStrands> = 0
    <WireD> = 0
    <BHPoints> = 47
      0	0
      0.050000000000000003	15.120714
      0.10000000000000001	22.718292000000002
      0.14999999999999999	27.842732999999999
      0.20000000000000001	31.871434000000001
      0.25	35.365043999999997
      0.29999999999999999	38.600588000000002
      0.34999999999999998	41.736201999999999
      0.40000000000000002	44.873978999999999
      0.45000000000000001	48.087806999999998
      0.5	51.437235999999999
      0.55000000000000004	54.975220999999998
      0.59999999999999998	58.752992999999996
      0.65000000000000002	62.823644000000002
      0.69999999999999996	67.245284999999996
      0.75	72.084406000000001
      0.80000000000000004	77.420100000000005
      0.84999999999999998	83.350020999999998
      0.90000000000000002	89.999611999999999
      0.94999999999999996	97.537352999999996
      1	106.20140600000001
      1.05	116.34846400000001
      1.1000000000000001	128.54732899999999
      1.1499999999999999	143.76543100000001
      1.2	163.75416899999999
      1.25	191.86815799999999
      1.3	234.833507
      1.3500000000000001	306.50976900000001
      1.3999999999999999	435.255202
      1.45	674.911968
      1.5	1108.3255690000001
      1.55	1813.085468
      1.6000000000000001	2801.2174209999998
      1.6499999999999999	4053.6531169999998
      1.7	5591.10689
      1.75	7448.318413
      1.8	9708.81567
      1.8500000000000001	12486.931615
      1.8999999999999999	16041.483644
      1.95	21249.420623999998
      2	31313.495878000002
      2.0499999999999998	53589.446877000002
      2.1000000000000001	88477.484601000004
      2.1499999999999999	124329.41054
      2.2000000000000002	159968.5693
      2.25	197751.604272
      2.2999999999999998	234024.75134700001
  <EndBlock>
  <BeginBlock>
    <BlockName> = "Hiperco-50"
    <Mu_x> = 3520
    <Mu_y> = 3520
    <H_c> = 0
    <H_cAngle> = 0
    <J_re> = 0
    <J_im> = 0
    <Sigma> = 2.5
    <d_lam> = 0
    <Phi_h> = 20
    <Phi_hx> = 0
    <Phi_hy> = 0
    <LamType> = 0
    <LamFill> = 1
    <NStrands> = 0
    <WireD> = 0
    <BHPoints> = 22
      0	0
      0.29072999999999999	81.170000000000002
      0.42870999999999998	106.8
      0.58955999999999997	136.84
      0.79627000000000003	179.91
      1.0201	233.41
      1.1980999999999999	283.70999999999998
      1.3989	344.75
      1.5596000000000001	402.92000000000002
      1.7835000000000001	536.63999999999999
      1.8985000000000001	670.10000000000002
      1.9906999999999999	893.79999999999995
      2.0543999999999998	1290.4000000000001
      2.1183999999999998	2209.8000000000002
      2.1476999999999999	3233.6999999999998
      2.177	4549
      2.2065000000000001	7297.8000000000002
      2.2416999999999998	11554
      2.2711999999999999	18294
      2.2890000000000001	25071
      2.3126000000000002	36690
      2.3410000000000002	62037
  <EndBlock>
[CircuitProps]  = 3
  <BeginCircuit>
    <CircuitName> = "A"
    <TotalAmps_re> = 2.5
    <TotalAmps_im> = 0
    <CircuitType> = 1
  <EndCircuit>
  <BeginCircuit>
    <CircuitName> = "B"
    <TotalAmps_re> = -1.25
    <TotalAmps_im> = 0
    <CircuitType> = 1
  <EndCircuit>
  <BeginCircuit>
    <CircuitName> = "C"
    <TotalAmps_re> = -1.25
    <TotalAmps_im> = 0
    <CircuitType> = 1
  <EndCircuit>
[NumPoints] = 72
0.13400000000000001	0	0	0
-0.13400000000000001	0	0	0
0.080000000000000002	0	0	0
-0.080000000000000002	0	0	0
0.069192762257878057	0.0091093999662205452	0	0
0.069192762257878057	-0.0091093999662205452	0	0
0.025777566395719074	0.0033936809977213414	0	0
0.025777566395719074	-0.0033936809977213414	0	0
0.055367989890229251	0.042485352912919126	0	0
0.064477389856449782	0.026707409344958931	0	0
0.020627186847572119	0.015827797154226737	0	0
0.024020867845293458	0.0099497692414923355	0	0
0.026707409344958934	0.064477389856449782	0	0
0.042485352912919133	0.055367989890229244	0	0
0.0099497692414923372	0.024020867845293458	0	0
0.01582779715422674	0.020627186847572115	0	0
-0.0091093999662205469	0.069192762257878057	0	0
0.0091093999662205556	0.069192762257878057	0	0
-0.0033936809977213418	0.025777566395719074	0	0
0.0033936809977213448	0.025777566395719074	0	0
-0.042485352912919112	0.055367989890229258	0	0
-0.026707409344958914	0.064477389856449796	0	0
-0.01582779715422673	0.020627186847572122	0	0
-0.0099497692414923285	0.024020867845293462	0	0
-0.064477389856449768	0.026707409344958966	0	0
-0.055367989890229237	0.042485352912919147	0	0
-0.024020867845293451	0.0099497692414923476	0	0
-0.020627186847572112	0.015827797154226744	0	0
-0.069192762257878071	-0.0091093999662205279	0	0
-0.069192762257878057	0.0091093999662205452	0	0
-0.025777566395719074	-0.0033936809977213349	0	0
-0.025777566395719074	0.0033936809977213414	0	0
-0.055367989890229258	-0.042485352912919112	0	0
-0.064477389856449796	-0.02670740934495892	0	0
-0.020627186847572122	-0.01582779715422673	0	0
-0.024020867845293462	-0.0099497692414923303	0	0
-0.026707409344958969	-0.064477389856449768	0	0
-0.042485352912919147	-0.05536798989022923	0	0
-0.0099497692414923494	-0.024020867845293451	0	0
-0.015827797154226744	-0.020627186847572112	0	0
0.0091093999662205244	-0.069192762257878071	0	0
-0.0091093999662205487	-0.069192762257878057	0	0
0.0033936809977213331	-0.025777566395719074	0	0
-0.0033936809977213427	-0.025777566395719074	0	0
0.042485352912919078	-0.055367989890229279	0	0
0.026707409344958889	-0.064477389856449796	0	0
0.015827797154226719	-0.020627186847572129	0	0
0.0099497692414923199	-0.024020867845293462	0	0
0.064477389856449754	-0.026707409344959031	0	0
0.055367989890229188	-0.042485352912919203	0	0
0.024020867845293444	-0.0099497692414923719	0	0
0.020627186847572095	-0.015827797154226764	0	0
0.025500000000000002	0	0	1
-0.025500000000000002	0	0	1
0.024692208514878446	0.0039108616260057714	0	1
0.024692208514878446	-0.0039108616260057714	0	1
0.020741455152497895	0.0032851237658448481	0	1
0.020741455152497895	-0.0032851237658448481	0	1
-0.0039108616260057705	0.024692208514878446	0	1
0.0039108616260057731	0.024692208514878446	0	1
-0.0032851237658448472	0.020741455152497895	0	1
0.0032851237658448498	0.020741455152497895	0	1
-0.024692208514878446	-0.0039108616260057688	0	1
-0.024692208514878442	0.0039108616260057748	0	1
-0.020741455152497895	-0.0032851237658448455	0	1
-0.020741455152497892	0.0032851237658448507	0	1
0.003910861626005767	-0.024692208514878446	0	1
-0.0039108616260057757	-0.024692208514878442	0	1
0.0032851237658448442	-0.020741455152497895	0	1
-0.003285123765844852	-0.020741455152497892	0	1
0.01	0	0	1
-0.01	0	0	1
[NumSegments] = 32
4	6	-1	0	0	0
5	7	-1	0	0	0
9	11	-1	0	0	0
8	10	-1	0	0	0
13	15	-1	0	0	0
12	14	-1	0	0	0
17	19	-1	0	0	0
16	18	-1	0	0	0
21	23	-1	0	0	0
20	22	-1	0	0	0
25	27	-1	0	0	0
24	26	-1	0	0	0
29	31	-1	0	0	0
28	30	-1	0	0	0
33	35	-1	0	0	0
32	34	-1	0	0	0
37	39	-1	0	0	0
36	38	-1	0	0	0
41	43	-1	0	0	0
40	42	-1	0	0	0
45	47	-1	0	0	0
44	46	-1	0	0	0
49	51	-1	0	0	0
48	50	-1	0	0	0
54	56	-1	0	0	1
55	57	-1	0	0	1
58	60	-1	0	0	1
59	61	-1	0	0	1
62	64	-1	0	0	1
63	65	-1	0	0	1
66	68	-1	0	0	1
67	69	-1	0	0	1
[NumArcSegments] = 56
0	1	180	1	0	0	0	1
1	0	180	1	0	0	0	1
2	3	180	1	0	0	0	1
3	2	180	1	0	0	0	1
4	9	15	1	0	0	0	1
7	6	15	1	0	0	0	1
6	11	15	1	0	0	0	1
8	13	15	1	0	0	0	1
11	10	15	1	0	0	0	1
10	15	15	1	0	0	0	1
12	17	15	1	0	0	0	1
15	14	15	1	0	0	0	1
14	19	15	1	0	0	0	1
16	21	15	1	0	0	0	1
19	18	15	1	0	0	0	1
18	23	15	1	0	0	0	1
20	25	15	1	0	0	0	1
23	22	15	1	0	0	0	1
22	27	15	1	0	0	0	1
24	29	15	1	0	0	0	1
27	26	15	1	0	0	0	1
26	31	15	1	0	0	0	1
28	33	15	1	0	0	0	1
31	30	15	1	0	0	0	1
30	35	15	1	0	0	0	1
32	37	15	1	0	0	0	1
35	34	15	1	0	0	0	1
34	39	15	1	0	0	0	1
36	41	15	1	0	0	0	1
39	38	15	1	0	0	0	1
38	43	15	1	0	0	0	1
40	45	15	1	0	0	0	1
43	42	15	1	0	0	0	1
42	47	15	1	0	0	0	1
44	49	15	1	0	0	0	1
47	46	15	1	0	0	0	1
46	51	15	1	0	0	0	1
48	5	15	1	0	0	0	1
51	50	15	1	0	0	0	1
50	7	15	1	0	0	0	1
52	53	180	1	0	0	1	1
53	52	180	1	0	0	1	1
56	61	72	1	0	0	1	1
61	60	17.999999999999996	1	0	0	1	1
54	59	72	1	0	0	1	1
60	65	72	1	0	0	1	1
65	64	17.999999999999996	1	0	0	1	1
58	63	72	1	0	0	1	1
64	69	72	1	0	0	1	1
69	68	17.999999999999996	1	0	0	1	1
62	67	72	1	0	0	1	1
68	57	72	1	0	0	1	1
57	56	17.999999999999996	1	0	0	1	1
66	55	72	1	0	0	1	1
70	71	180	1	0	0	1	1
71	70	180	1	0	0	1	1
[NumHoles] = 0
[NumBlockLabels] = 22
0	0.13300000000000001	1	-1	0	0	0	1	0
0	0.025900000000000003	1	-1	0	0	1	1	0
0	0.025400000000000002	1	-1	0	0	1	1	0
0	0.079000000000000001	5	-1	0	0	0	1	0
0.046262932388674245	0.012396115373040893	2	-1	2	0	0	813	0
0.033866817015633349	0.033866817015633349	2	-1	2	0	0	-813	0
0.012396115373040903	0.046262932388674238	2	-1	1	0	0	-813	0
-0.012396115373040887	0.046262932388674245	2	-1	1	0	0	813	0
-0.033866817015633349	0.033866817015633349	2	-1	3	0	0	813	0
-0.046262932388674238	0.012396115373040906	2	-1	3	0	0	-813	0
-0.046262932388674245	-0.012396115373040896	2	-1	2	0	0	-813	0
-0.033866817015633356	-0.033866817015633349	2	-1	2	0	0	813	0
-0.012396115373040931	-0.046262932388674231	2	-1	1	0	0	813	0
0.012396115373040872	-0.046262932388674252	2	-1	1	0	0	-813	0
0.033866817015633315	-0.033866817015633391	2	-1	3	0	0	-813	0
0.046262932388674224	-0.012396115373040972	2	-1	3	0	0	813	0
0	0.017500000000000002	4	-1	0	0	1	1	0
0	0.0090000000000000011	1	-1	0	0	1	1	0
0.016263455967290594	0.016263455967290591	3	-1	0	1125	1	1	0
-0.016263455967290591	0.016263455967290594	3	-1	0	1395	1	1	0
-0.016263455967290598	-0.016263455967290591	3	-1	0	585	1	1	0
0.016263455967290587	-0.016263455967290598	3	-1	0	855	1	1	0
